LAMMPS (16 Mar 2018)
####################################################
# Preprocessing Li2SO4 in water
#################### SETTING UP ####################
units real
dimension 3
newton on
boundary p p p
atom_style full

#################### VARIABLES ####################
variable Temp equal 298.15    # Temperature in K
variable Pres equal 1    # Pressure in atm.

variable RandomSeed equal 2 # The random seed for velocity
variable tstep equal 1 # timestep in fs

#################### NPT ####################
variable Ninptpre equal 10000 # Pre-initialize the NPT ensemble (very small timesteps)
variable Ninpt equal 1000000  # Initialize the NPT ensemble
variable Npnpt equal 2500000  # Production in the NPT ensemble (volume)

#################### NVT ####################
variable Ninvtpre equal 10000  # Pre-initialize the NVT ensemble (very small timesteps)
variable Ninvt equal 250000   # Initialize the NVT ensemble 0.1 ns
variable Nrun1 equal 250000  # production in the NVT ensemble (Transport properties)
variable Nrun2 equal 1000000  # production in the NVT ensemble (Transport properties)
variable Nrun3 equal 2500000  # production in the NVT ensemble (Transport properties)

variable Nf equal 100000      # Nfreq (fix ave/time and thermo)
variable Ne equal  1          # Nevery (fix ave/time)
variable Nr equal 100000/1
variable Nd equal 100000
variable NBR equal 2500000/100

variable nb equal 10          # Number of blocks (fix ordern)
variable nbe equal 20         # Number of block elements (fix ordern)
variable Nvisc equal 5        # Nevery for viscosity (fix ordern: sample data at (Nvisc*2))
variable Ncond equal 5        # Nevery for Tconductivity (fix ordern: sample data at (Ncond*2))
variable Ndiff equal 1000     # Nevery for diffusivity (fix ordern: sample data at (Ndiff))
variable Nwrit equal 100000   # Nwrite for transport properties (fix ordern: write every (Nwrit))

variable Nrdfe equal 1000     # Nevery for RDF (fix ave/time)
variable Nrdfw equal 1000     # Nwrite for RDF (compute rdf/ext: write every (Nrdfw*Nrdfe))
variable binnum equal 2000    # Number of bins for RDF

#################### ATOM DEFINITION and FORCEFIELD ####################
read_data ./data.lmp                     # read the positions
  orthogonal box = (0 0 0) to (26.3997 26.3997 26.3997)
  reading atoms ...
  1689 atoms
  scanning bonds ...
  scanning angles ...
  reading bonds ...
  1135 bonds
  reading angles ...
  662 angles
include ./forcefield.data                # read the force field
# ----------------- INTERMOLECULAR POTENTIAL -------------------
# ---------------Developed for Na(B(OH)4) in water (tip4p/2005) system-----

mass 1 15.9994 # Ow
mass 2 1.00794 # Hw
mass 3 22.9397 # Na
mass 4 0.0500  # M
mass 5 10.811  # B(B(OH)4)
mass 6 17.008  # OH(B(OH)4)

pair_style lj/cut/tip4p/long 1 2 1 1 0.1546 10.0
kspace_style pppm/tip4p 1.0e-5
pair_modify tail yes # ATC

#-----------------Combinations----------------------------

pair_coeff 1 1 0.1852 3.1589     # Ow-Ow
pair_coeff 1 2 0.0000 0.0000     # Ow-Hw
pair_coeff 1 3 0.1897 2.60838    # Ow-Na
pair_coeff 1 4 0.0000 0.0000     # Ow-M
pair_coeff 1 5 0.0000 0.0000     # Ow-B(B(OH)4)
pair_coeff 1 6 0.1361 3.0100    # Ow-OH(B(OH)4)

pair_coeff 2 2 0.0000 0.0000     # Hw-Hw
pair_coeff 2 3 0.0000 0.0000     # Hw-Na
pair_coeff 2 4 0.0000 0.0000     # Hw-M
pair_coeff 2 5 0.0000 0.0000     # Hw-B(B(OH)4)
pair_coeff 2 6 0.0000 0.0000     # Hw-OH(B(OH)4)

pair_coeff 3 3 0.3519 2.2174     # Na-Na
pair_coeff 3 4 0.0000 0.0000     # Na-M
pair_coeff 3 5 0.0000 0.0000     # Na-B(B(OH)4)
pair_coeff 3 6 0.1876 2.5837     # Na-OH(B(OH)4)

pair_coeff 4 4 0.0000 0.0000     # M-M
pair_coeff 4 5 0.0000 0.0000     # M-B
pair_coeff 4 6 0.0000 0.0000     # M-OH

pair_coeff 5 5 0.0000 0.0000     # B(B(OH)4)-B(B(OH)4)
pair_coeff 5 6 0.0000 0.0000     # B(B(OH)4)-OH(B(OH)4)

pair_coeff 6 6 0.1000 2.9500     # OH(B(OH)4)-OH(B(OH)4)

bond_style  harmonic
bond_coeff 1 1000 0.9572          # Ow-Hw
bond_coeff 2 1000 0.5000          # Na-M
bond_coeff 3 1000 1.4900          # B(B(OH)4)-OH(B(OH)4)

angle_style harmonic
angle_coeff 1 100 104.52          # H-O-H
angle_coeff 2 100 109.5           # OH(B(OH)4)-B(B(OH)4)-OH(B(OH)4)
#dihedral_style none
#improper_style none

set type 1 charge -1.1128        # O
  500 settings made for charge
set type 2 charge +0.5564        # OH
  1000 settings made for charge
set type 3 charge +0.8500        # Na
  27 settings made for charge
set type 4 charge 0.00000        # M
  27 settings made for charge
set type 5 charge +2.5500        # B(B(OH)4)
  27 settings made for charge
set type 6 charge -0.8500        # OH(B(OH)4)
  108 settings made for charge

#################### INITIALIZATION ####################
group wat type 1		# O water
500 atoms in group wat
group Na type 3			# Sodium atom
27 atoms in group Na
group B type 5			# B of B(OH)4
27 atoms in group B

# neigbor lists
neighbor 2.0 bin
neigh_modify every 1 delay 0 check yes

# velocity-Verlet integrator
run_style verlet

# initializing velocities
velocity all create 298.15 2

# rate of writing thermal properties to the log file
thermo_style custom step density temp press etotal
thermo_modify flush yes
thermo 100000

#################### 2) Initialize the NPT ensemble ####################
######### Go to the correct temperature now ant initiate that ##########
fix integrate all rigid/npt/small molecule temp 298.15 298.15 10.0 iso 1 1 100.0
554 rigid bodies with 1689 atoms
  1.49001 = max distance from body owner to body atom

# Initializing the whole system with very small timesteps in the NPT ensemble
timestep 0.001
run 10000
PPPM initialization ...
  extracting TIP4P info from pair style
  G vector (1/distance) = 0.316667
  grid = 27 27 27
  stencil order = 5
  estimated absolute RMS force accuracy = 0.00282331
  estimated relative force accuracy = 8.50232e-06
  3d grid and FFT values/proc = 3136 540
  update every 1 steps, delay 0 steps, check yes
Step Density Temp Press TotEng
0    1.0610873     299.5804   -1819296.8    2131.8107
Loop time of 18.386 on 48 procs for 10000 steps with 1689 atoms

timestep 0.01
run 10000
PPPM initialization ...
  extracting TIP4P info from pair style
  G vector (1/distance) = 0.31579
  grid = 27 27 27
  stencil order = 5
  estimated absolute RMS force accuracy = 0.0029298
  estimated relative force accuracy = 8.82302e-06
  3d grid and FFT values/proc = 3136 540
Step Density Temp Press TotEng
10000    1.0218832    1075.9273    1966.1064    1120.9163
Loop time of 17.22 on 48 procs for 10000 steps with 1689 atoms

timestep 0.1
run 10000
PPPM initialization ...
  extracting TIP4P info from pair style
  G vector (1/distance) = 0.3129
  grid = 25 25 25
  stencil order = 5
  estimated absolute RMS force accuracy = 0.00371227
  estimated relative force accuracy = 1.11794e-05
  3d grid and FFT values/proc = 3136 500
Step Density Temp Press TotEng
20000     1.138337    441.40313    5674.8877   -6246.5871
Loop time of 19.0921 on 48 procs for 10000 steps with 1689 atoms

timestep 0.2
run 10000
PPPM initialization ...
  extracting TIP4P info from pair style
  G vector (1/distance) = 0.3141
  grid = 25 25 25
  stencil order = 5
  estimated absolute RMS force accuracy = 0.00353104
  estimated relative force accuracy = 1.06336e-05
  3d grid and FFT values/proc = 3136 500
Step Density Temp Press TotEng
30000    1.1973331    296.28499   -650.97562    -8654.704
Loop time of 18.9487 on 48 procs for 10000 steps with 1689 atoms

timestep 0.5
run 10000
PPPM initialization ...
  extracting TIP4P info from pair style
  G vector (1/distance) = 0.314273
  grid = 25 25 25
  stencil order = 5
  estimated absolute RMS force accuracy = 0.00350563
  estimated relative force accuracy = 1.05571e-05
  3d grid and FFT values/proc = 3136 500
Step Density Temp Press TotEng
40000    1.2061021    289.52837    4694.7729   -8804.2469
Loop time of 19.2322 on 48 procs for 10000 steps with 1689 atoms

reset_timestep 0

# continuing the initialization with the final value of timestep
unfix integrate
fix integrate all rigid/npt/small molecule temp 298.15 298.15 100.0 iso 1 1 1000.0
554 rigid bodies with 1689 atoms
  1.49048 = max distance from body owner to body atom

timestep 1

run 1000000
PPPM initialization ...
  extracting TIP4P info from pair style
  G vector (1/distance) = 0.314139
  grid = 25 25 25
  stencil order = 5
  estimated absolute RMS force accuracy = 0.00352533
  estimated relative force accuracy = 1.06164e-05
  3d grid and FFT values/proc = 3136 500
Step Density Temp Press TotEng
0    1.1992903    304.74378    874.96278   -8762.5533
Averages over the last 6 of 11 rows, steps 500000 to 1000000:
Density Temp Press TotEng
1.18754 300.53 135.731 -8813.02
Loop time of 2011.37 on 48 procs for 1000000 steps with 1689 atoms

reset_timestep 0

#################### 3) Obtaining average volume in NPT ######################
# Creating restart files
restart 100000 1.restart 2.restart

# Getting the average volume of the system
variable Volume equal vol
fix VoluAve all ave/time 1 2500000 2500000 v_Volume file volume.dat

variable Dens equal density
fix DensAve all ave/time 1 25000 25000 v_Dens file density.dat

compute T1 all temp
fix TempAve1 all ave/time 1 25000 25000 c_T1 file temperatureNPT.dat

compute P1 all pressure T1
fix PressAve1 all ave/time 1 25000 25000 c_P1 file pressureNPT.dat

run 2500000
PPPM initialization ...
  extracting TIP4P info from pair style
  G vector (1/distance) = 0.313804
  grid = 25 25 25
  stencil order = 5
  estimated absolute RMS force accuracy = 0.00357501
  estimated relative force accuracy = 1.0766e-05
  3d grid and FFT values/proc = 3136 500
Step Density Temp Press TotEng
0    1.1824584    303.89186    1796.8254   -8779.9736
Averages over the last 13 of 26 rows, steps 1300000 to 2500000:
Density Temp Press TotEng
1.19062 302.517 185.863 -8821.85
Loop time of 5028.09 on 48 procs for 2500000 steps with 1689 atoms

#################### 4) Initializing the NVT ensemble ####################
# scaling the size of the system to the average volume
variable sidesize equal (f_VoluAve^(1.0/3.0))    # get the volume
variable xlow equal xlo
variable ylow equal ylo
variable zlow equal zlo
variable xhig equal (xlo+25.4213200711315)
variable yhig equal (ylo+25.4213200711315)
variable zhig equal (zlo+25.4213200711315)
change_box all x final 0.464062404243306 25.8853824753748 y final 0.464062404243306 25.8853824753748 z final 0.464062404243306 25.8853824753748
  orthogonal box = (0.464062 0.464062 0.464062) to (25.8854 25.9357 25.9357)
  orthogonal box = (0.464062 0.464062 0.464062) to (25.8854 25.8854 25.9357)
  orthogonal box = (0.464062 0.464062 0.464062) to (25.8854 25.8854 25.8854)
unfix DensAve
unfix VoluAve
unfix TempAve1
unfix PressAve1

# changing the ensemble to NVT
unfix integrate
fix integrate all rigid/nvt/small molecule temp 298.15 298.15 10.0
554 rigid bodies with 1689 atoms
  1.49048 = max distance from body owner to body atom

timestep 0.001
run 10000
PPPM initialization ...
  extracting TIP4P info from pair style
  G vector (1/distance) = 0.313922
  grid = 25 25 25
  stencil order = 5
  estimated absolute RMS force accuracy = 0.00355737
  estimated relative force accuracy = 1.07129e-05
  3d grid and FFT values/proc = 3136 500
Step Density Temp Press TotEng
2500000    1.1883813    300.58171   -12430.758   -8698.7398
Loop time of 16.0057 on 48 procs for 10000 steps with 1689 atoms

timestep 0.01
run 10000
PPPM initialization ...
  extracting TIP4P info from pair style
  G vector (1/distance) = 0.313922
  grid = 25 25 25
  stencil order = 5
  estimated absolute RMS force accuracy = 0.00355737
  estimated relative force accuracy = 1.07129e-05
  3d grid and FFT values/proc = 3136 500
Step Density Temp Press TotEng
2510000    1.1883813    298.18301    8260.5957   -8705.7124
Loop time of 16.0373 on 48 procs for 10000 steps with 1689 atoms

timestep 0.1
run 10000
PPPM initialization ...
  extracting TIP4P info from pair style
  G vector (1/distance) = 0.313922
  grid = 25 25 25
  stencil order = 5
  estimated absolute RMS force accuracy = 0.00355737
  estimated relative force accuracy = 1.07129e-05
  3d grid and FFT values/proc = 3136 500
Step Density Temp Press TotEng
2520000    1.1883813    313.53005   -619.54911   -8656.5881
Loop time of 16.1078 on 48 procs for 10000 steps with 1689 atoms

timestep 0.2
run 10000
PPPM initialization ...
  extracting TIP4P info from pair style
  G vector (1/distance) = 0.313922
  grid = 25 25 25
  stencil order = 5
  estimated absolute RMS force accuracy = 0.00355737
  estimated relative force accuracy = 1.07129e-05
  3d grid and FFT values/proc = 3136 500
Step Density Temp Press TotEng
2530000    1.1883813    309.96275     2100.658   -8663.9159
Loop time of 16.2163 on 48 procs for 10000 steps with 1689 atoms

timestep 0.5
run 10000
PPPM initialization ...
  extracting TIP4P info from pair style
  G vector (1/distance) = 0.313922
  grid = 25 25 25
  stencil order = 5
  estimated absolute RMS force accuracy = 0.00355737
  estimated relative force accuracy = 1.07129e-05
  3d grid and FFT values/proc = 3136 500
Step Density Temp Press TotEng
2540000    1.1883813     294.4406    1265.4895   -8813.6632
Loop time of 17.0807 on 48 procs for 10000 steps with 1689 atoms

unfix integrate
fix integrate all rigid/nvt/small molecule temp 298.15 298.15 100.0
554 rigid bodies with 1689 atoms
  1.49048 = max distance from body owner to body atom
# continuing the initialization with the final value of timestep
timestep 1

run 250000
PPPM initialization ...
  extracting TIP4P info from pair style
  G vector (1/distance) = 0.313922
  grid = 25 25 25
  stencil order = 5
  estimated absolute RMS force accuracy = 0.00355737
  estimated relative force accuracy = 1.07129e-05
  3d grid and FFT values/proc = 3136 500
Step Density Temp Press TotEng
2550000    1.1883813    301.81312    159.40923   -8746.9782
Loop time of 433.545 on 48 procs for 250000 steps with 1689 atoms

reset_timestep 0

#################### 2) Production in NVT ensemble #####################
# computing average total energy, pontential energy, temperature, and pressure over time
variable TotEn equal etotal
fix TEAve all ave/time 1 100000 100000 v_TotEn file TotalE.dat

variable PotEn equal pe
fix PEAve all ave/time 1 100000 100000 v_PotEn file PotenE.dat

compute T all temp
fix TempAve all ave/time 1 100000 100000 c_T file temperature.dat

compute P all pressure T
fix PressAve all ave/time 1 100000 100000 c_P file pressure.dat

# computing self-diffusion and Onsager coefficients using the OCTP plugin
compute positions all position
fix f1 all ordern diffusivity 1000 100000 c_positions nb 10 nbe 20

# computing shear and bulk viscosities  using the OCTP plugin
fix f2 all ordern viscosity 5 100000 c_P nb 10 nbe 20

# computing thermal conductivity using the OCTP plugin
compute KE all ke/atom
compute PE all pe/atom
compute ST all stress/atom NULL virial
compute heatflux all heat/flux KE PE ST
fix f3 all ordern thermalconductivity 5 100000 c_heatflux nb 10 nbe 20

# computing the RDF for all group pairs
compute rdfs all rdf/ext Nbin 2000 Nwrite 1000
fix f4 all ave/time 1 1 1000 c_rdfs

dump trjectory all xyz 100000 movie.xyz
dump_modify trjectory element Ow H Na m B OH

run 250000
PPPM initialization ...
  extracting TIP4P info from pair style
  G vector (1/distance) = 0.313922
  grid = 25 25 25
  stencil order = 5
  estimated absolute RMS force accuracy = 0.00355737
  estimated relative force accuracy = 1.07129e-05
  3d grid and FFT values/proc = 3136 500
Step Density Temp Press TotEng
0    1.1883813    292.39847    1233.9109   -8761.7227
Loop time of 574.971 on 48 procs for 250000 steps with 1689 atoms

shell bash copy_files.sh 0.25ns

run 250000
PPPM initialization ...
  extracting TIP4P info from pair style
  G vector (1/distance) = 0.313922
  grid = 25 25 25
  stencil order = 5
  estimated absolute RMS force accuracy = 0.00355737
  estimated relative force accuracy = 1.07129e-05
  3d grid and FFT values/proc = 3136 500
Step Density Temp Press TotEng
250000    1.1883813    295.63775    5557.8385   -8731.2559
Loop time of 580.688 on 48 procs for 250000 steps with 1689 atoms

shell bash copy_files.sh 0.5ns

run 250000
PPPM initialization ...
  extracting TIP4P info from pair style
  G vector (1/distance) = 0.313922
  grid = 25 25 25
  stencil order = 5
  estimated absolute RMS force accuracy = 0.00355737
  estimated relative force accuracy = 1.07129e-05
  3d grid and FFT values/proc = 3136 500
Step Density Temp Press TotEng
500000    1.1883813    278.62625   -980.11259   -8823.1991
Loop time of 579.378 on 48 procs for 250000 steps with 1689 atoms

shell bash copy_files.sh 0.75ns

run 250000
PPPM initialization ...
  extracting TIP4P info from pair style
  G vector (1/distance) = 0.313922
  grid = 25 25 25
  stencil order = 5
  estimated absolute RMS force accuracy = 0.00355737
  estimated relative force accuracy = 1.07129e-05
  3d grid and FFT values/proc = 3136 500
Step Density Temp Press TotEng
750000    1.1883813    288.33028    2795.9177   -8766.6195
Loop time of 579.24 on 48 procs for 250000 steps with 1689 atoms

shell bash copy_files.sh 1ns

run 250000
PPPM initialization ...
  extracting TIP4P info from pair style
  G vector (1/distance) = 0.313922
  grid = 25 25 25
  stencil order = 5
  estimated absolute RMS force accuracy = 0.00355737
  estimated relative force accuracy = 1.07129e-05
  3d grid and FFT values/proc = 3136 500
Step Density Temp Press TotEng
1000000    1.1883813    303.11569    810.67617   -8709.6901
Loop time of 578.855 on 48 procs for 250000 steps with 1689 atoms

shell bash copy_files.sh 1.25ns

run 250000
PPPM initialization ...
  extracting TIP4P info from pair style
  G vector (1/distance) = 0.313922
  grid = 25 25 25
  stencil order = 5
  estimated absolute RMS force accuracy = 0.00355737
  estimated relative force accuracy = 1.07129e-05
  3d grid and FFT values/proc = 3136 500
Step Density Temp Press TotEng
1250000    1.1883813    301.25708    3570.7484   -8675.9839
Loop time of 576.367 on 48 procs for 250000 steps with 1689 atoms

shell bash copy_files.sh 1.5ns

run 250000
PPPM initialization ...
  extracting TIP4P info from pair style
  G vector (1/distance) = 0.313922
  grid = 25 25 25
  stencil order = 5
  estimated absolute RMS force accuracy = 0.00355737
  estimated relative force accuracy = 1.07129e-05
  3d grid and FFT values/proc = 3136 500
Step Density Temp Press TotEng
1500000    1.1883813    298.78231    3027.4787   -8677.8827
Loop time of 575.553 on 48 procs for 250000 steps with 1689 atoms

shell bash copy_files.sh 1.75ns

run 250000
PPPM initialization ...
  extracting TIP4P info from pair style
  G vector (1/distance) = 0.313922
  grid = 25 25 25
  stencil order = 5
  estimated absolute RMS force accuracy = 0.00355737
  estimated relative force accuracy = 1.07129e-05
  3d grid and FFT values/proc = 3136 500
Step Density Temp Press TotEng
1750000    1.1883813    298.19707   -2480.8246   -8700.7638
Loop time of 573.798 on 48 procs for 250000 steps with 1689 atoms

shell bash copy_files.sh 2ns

run 1000000
PPPM initialization ...
  extracting TIP4P info from pair style
  G vector (1/distance) = 0.313922
  grid = 25 25 25
  stencil order = 5
  estimated absolute RMS force accuracy = 0.00355737
  estimated relative force accuracy = 1.07129e-05
  3d grid and FFT values/proc = 3136 500
Step Density Temp Press TotEng
2000000    1.1883813    298.92996    3209.9144   -8652.8939
Averages over the last 6 of 11 rows, steps 2500000 to 3000000:
Density Temp Press TotEng
1.18838 297.81 -6.83883 -8700.79
Loop time of 2296.42 on 48 procs for 1000000 steps with 1689 atoms

shell bash copy_files.sh 3ns

run 1000000
PPPM initialization ...
  extracting TIP4P info from pair style
  G vector (1/distance) = 0.313922
  grid = 25 25 25
  stencil order = 5
  estimated absolute RMS force accuracy = 0.00355737
  estimated relative force accuracy = 1.07129e-05
  3d grid and FFT values/proc = 3136 500
Step Density Temp Press TotEng
3000000    1.1883813     296.7001    319.88356   -8654.3359
Averages over the last 6 of 11 rows, steps 3500000 to 4000000:
Density Temp Press TotEng
1.18838 297.769 145.589 -8705.95
Loop time of 2293.92 on 48 procs for 1000000 steps with 1689 atoms

shell bash copy_files.sh 4ns

run 1000000
PPPM initialization ...
  extracting TIP4P info from pair style
  G vector (1/distance) = 0.313922
  grid = 25 25 25
  stencil order = 5
  estimated absolute RMS force accuracy = 0.00355737
  estimated relative force accuracy = 1.07129e-05
  3d grid and FFT values/proc = 3136 500
Step Density Temp Press TotEng
4000000    1.1883813    297.21989    2428.9779    -8743.699
Averages over the last 6 of 11 rows, steps 4500000 to 5000000:
Density Temp Press TotEng
1.18838 297.418 156.327 -8707.33
Loop time of 2298.32 on 48 procs for 1000000 steps with 1689 atoms

shell bash copy_files.sh 5ns

run 1000000
PPPM initialization ...
  extracting TIP4P info from pair style
  G vector (1/distance) = 0.313922
  grid = 25 25 25
  stencil order = 5
  estimated absolute RMS force accuracy = 0.00355737
  estimated relative force accuracy = 1.07129e-05
  3d grid and FFT values/proc = 3136 500
Step Density Temp Press TotEng
5000000    1.1883813    291.36649    2527.8913   -8750.8343
Averages over the last 6 of 11 rows, steps 5500000 to 6000000:
Density Temp Press TotEng
1.18838 298.235 446.722 -8708.7
Loop time of 2293.62 on 48 procs for 1000000 steps with 1689 atoms

shell bash copy_files.sh 6ns

run 1000000
PPPM initialization ...
  extracting TIP4P info from pair style
  G vector (1/distance) = 0.313922
  grid = 25 25 25
  stencil order = 5
  estimated absolute RMS force accuracy = 0.00355737
  estimated relative force accuracy = 1.07129e-05
  3d grid and FFT values/proc = 3136 500
Step Density Temp Press TotEng
6000000    1.1883813    301.64493    1763.3537    -8679.866
Averages over the last 6 of 11 rows, steps 6500000 to 7000000:
Density Temp Press TotEng
1.18838 300.144 -134.397 -8712.13
Loop time of 2295.22 on 48 procs for 1000000 steps with 1689 atoms

shell bash copy_files.sh 7ns

run 1000000
PPPM initialization ...
  extracting TIP4P info from pair style
  G vector (1/distance) = 0.313922
  grid = 25 25 25
  stencil order = 5
  estimated absolute RMS force accuracy = 0.00355737
  estimated relative force accuracy = 1.07129e-05
  3d grid and FFT values/proc = 3136 500
Step Density Temp Press TotEng
7000000    1.1883813    299.25259    129.82472   -8730.7799
Averages over the last 6 of 11 rows, steps 7500000 to 8000000:
Density Temp Press TotEng
1.18838 295.549 60.3188 -8742.84
Loop time of 2294.29 on 48 procs for 1000000 steps with 1689 atoms

shell bash copy_files.sh 8ns

run 1000000
PPPM initialization ...
  extracting TIP4P info from pair style
  G vector (1/distance) = 0.313922
  grid = 25 25 25
  stencil order = 5
  estimated absolute RMS force accuracy = 0.00355737
  estimated relative force accuracy = 1.07129e-05
  3d grid and FFT values/proc = 3136 500
Step Density Temp Press TotEng
8000000    1.1883813    308.77586    2586.3226   -8650.5339
Averages over the last 6 of 11 rows, steps 8500000 to 9000000:
Density Temp Press TotEng
1.18838 300.419 -539.466 -8690.87
Loop time of 2298.92 on 48 procs for 1000000 steps with 1689 atoms

shell bash copy_files.sh 9ns

run 1000000
PPPM initialization ...
  extracting TIP4P info from pair style
  G vector (1/distance) = 0.313922
  grid = 25 25 25
  stencil order = 5
  estimated absolute RMS force accuracy = 0.00355737
  estimated relative force accuracy = 1.07129e-05
  3d grid and FFT values/proc = 3136 500
Step Density Temp Press TotEng
9000000    1.1883813    294.51091   -625.85331   -8687.8241
Averages over the last 6 of 11 rows, steps 9500000 to 10000000:
Density Temp Press TotEng
1.18838 297.093 27.8913 -8738.2
Loop time of 2298.27 on 48 procs for 1000000 steps with 1689 atoms

shell bash copy_files.sh 10ns

run 2500000
PPPM initialization ...
  extracting TIP4P info from pair style
  G vector (1/distance) = 0.313922
  grid = 25 25 25
  stencil order = 5
  estimated absolute RMS force accuracy = 0.00355737
  estimated relative force accuracy = 1.07129e-05
  3d grid and FFT values/proc = 3136 500
Step Density Temp Press TotEng
10000000    1.1883813    313.69925    462.46749   -8675.8137
Averages over the last 13 of 26 rows, steps 11300000 to 12500000:
Density Temp Press TotEng
1.18838 301.309 -112.574 -8688.44
Loop time of 5759.88 on 48 procs for 2500000 steps with 1689 atoms
