LAMMPS (16 Mar 2018)
####################################################
# Preprocessing Li2SO4 in water
#################### SETTING UP ####################
units real
dimension 3
newton on
boundary p p p
atom_style full

#################### VARIABLES ####################
variable Temp equal 298.15    # Temperature in K
variable Pres equal 1    # Pressure in atm.

variable RandomSeed equal 45 # The random seed for velocity
variable tstep equal 1 # timestep in fs

#################### NPT ####################
variable Ninptpre equal 10000 # Pre-initialize the NPT ensemble (very small timesteps)
variable Ninpt equal 1000000  # Initialize the NPT ensemble
variable Npnpt equal 2500000  # Production in the NPT ensemble (volume)

#################### NVT ####################
variable Ninvtpre equal 10000  # Pre-initialize the NVT ensemble (very small timesteps)
variable Ninvt equal 250000   # Initialize the NVT ensemble 0.1 ns
variable Nrun1 equal 250000  # production in the NVT ensemble (Transport properties)
variable Nrun2 equal 1000000  # production in the NVT ensemble (Transport properties)
variable Nrun3 equal 2500000  # production in the NVT ensemble (Transport properties)

variable Nf equal 100000      # Nfreq (fix ave/time and thermo)
variable Ne equal  1          # Nevery (fix ave/time)
variable Nr equal 100000/1
variable Nd equal 100000
variable NBR equal 2500000/100

variable nb equal 10          # Number of blocks (fix ordern)
variable nbe equal 20         # Number of block elements (fix ordern)
variable Nvisc equal 5        # Nevery for viscosity (fix ordern: sample data at (Nvisc*2))
variable Ncond equal 5        # Nevery for Tconductivity (fix ordern: sample data at (Ncond*2))
variable Ndiff equal 1000     # Nevery for diffusivity (fix ordern: sample data at (Ndiff))
variable Nwrit equal 100000   # Nwrite for transport properties (fix ordern: write every (Nwrit))

variable Nrdfe equal 1000     # Nevery for RDF (fix ave/time)
variable Nrdfw equal 1000     # Nwrite for RDF (compute rdf/ext: write every (Nrdfw*Nrdfe))
variable binnum equal 2000    # Number of bins for RDF

#################### ATOM DEFINITION and FORCEFIELD ####################
read_data ./data.lmp                     # read the positions
  orthogonal box = (0 0 0) to (26.3997 26.3997 26.3997)
  reading atoms ...
  1689 atoms
  scanning bonds ...
  scanning angles ...
  reading bonds ...
  1135 bonds
  reading angles ...
  662 angles
include ./forcefield.data                # read the force field
# ----------------- INTERMOLECULAR POTENTIAL -------------------
# ---------------Developed for Na(B(OH)4) in water (tip4p/2005) system-----

mass 1 15.9994 # Ow
mass 2 1.00794 # Hw
mass 3 22.9397 # Na
mass 4 0.0500  # M
mass 5 10.811  # B(B(OH)4)
mass 6 17.008  # OH(B(OH)4)

pair_style lj/cut/tip4p/long 1 2 1 1 0.1546 10.0
kspace_style pppm/tip4p 1.0e-5
pair_modify tail yes # ATC

#-----------------Combinations----------------------------

pair_coeff 1 1 0.1852 3.1589     # Ow-Ow
pair_coeff 1 2 0.0000 0.0000     # Ow-Hw
pair_coeff 1 3 0.1897 2.60838    # Ow-Na
pair_coeff 1 4 0.0000 0.0000     # Ow-M
pair_coeff 1 5 0.0000 0.0000     # Ow-B(B(OH)4)
pair_coeff 1 6 0.1361 3.0100    # Ow-OH(B(OH)4)

pair_coeff 2 2 0.0000 0.0000     # Hw-Hw
pair_coeff 2 3 0.0000 0.0000     # Hw-Na
pair_coeff 2 4 0.0000 0.0000     # Hw-M
pair_coeff 2 5 0.0000 0.0000     # Hw-B(B(OH)4)
pair_coeff 2 6 0.0000 0.0000     # Hw-OH(B(OH)4)

pair_coeff 3 3 0.3519 2.2174     # Na-Na
pair_coeff 3 4 0.0000 0.0000     # Na-M
pair_coeff 3 5 0.0000 0.0000     # Na-B(B(OH)4)
pair_coeff 3 6 0.1876 2.5837     # Na-OH(B(OH)4)

pair_coeff 4 4 0.0000 0.0000     # M-M
pair_coeff 4 5 0.0000 0.0000     # M-B
pair_coeff 4 6 0.0000 0.0000     # M-OH

pair_coeff 5 5 0.0000 0.0000     # B(B(OH)4)-B(B(OH)4)
pair_coeff 5 6 0.0000 0.0000     # B(B(OH)4)-OH(B(OH)4)

pair_coeff 6 6 0.1000 2.9500     # OH(B(OH)4)-OH(B(OH)4)

bond_style  harmonic
bond_coeff 1 1000 0.9572          # Ow-Hw
bond_coeff 2 1000 0.5000          # Na-M
bond_coeff 3 1000 1.4900          # B(B(OH)4)-OH(B(OH)4)

angle_style harmonic
angle_coeff 1 100 104.52          # H-O-H
angle_coeff 2 100 109.5           # OH(B(OH)4)-B(B(OH)4)-OH(B(OH)4)
#dihedral_style none
#improper_style none

set type 1 charge -1.1128        # O
  500 settings made for charge
set type 2 charge +0.5564        # OH
  1000 settings made for charge
set type 3 charge +0.8500        # Na
  27 settings made for charge
set type 4 charge 0.00000        # M
  27 settings made for charge
set type 5 charge +2.5500        # B(B(OH)4)
  27 settings made for charge
set type 6 charge -0.8500        # OH(B(OH)4)
  108 settings made for charge

#################### INITIALIZATION ####################
group wat type 1		# O water
500 atoms in group wat
group Na type 3			# Sodium atom
27 atoms in group Na
group B type 5			# B of B(OH)4
27 atoms in group B

# neigbor lists
neighbor 2.0 bin
neigh_modify every 1 delay 0 check yes

# velocity-Verlet integrator
run_style verlet

# initializing velocities
velocity all create 298.15 45

# rate of writing thermal properties to the log file
thermo_style custom step density temp press etotal
thermo_modify flush yes
thermo 100000

#################### 2) Initialize the NPT ensemble ####################
######### Go to the correct temperature now ant initiate that ##########
fix integrate all rigid/npt/small molecule temp 298.15 298.15 10.0 iso 1 1 100.0
554 rigid bodies with 1689 atoms
  1.49001 = max distance from body owner to body atom

# Initializing the whole system with very small timesteps in the NPT ensemble
timestep 0.001
run 10000
PPPM initialization ...
  extracting TIP4P info from pair style
  G vector (1/distance) = 0.316667
  grid = 27 27 27
  stencil order = 5
  estimated absolute RMS force accuracy = 0.00282331
  estimated relative force accuracy = 8.50232e-06
  3d grid and FFT values/proc = 3136 540
  update every 1 steps, delay 0 steps, check yes
Step Density Temp Press TotEng
0    1.0610873    297.86975     10230523    2126.2118
Loop time of 15.9416 on 48 procs for 10000 steps with 1689 atoms

timestep 0.01
run 10000
PPPM initialization ...
  extracting TIP4P info from pair style
  G vector (1/distance) = 0.315741
  grid = 27 27 27
  stencil order = 5
  estimated absolute RMS force accuracy = 0.00293588
  estimated relative force accuracy = 8.84133e-06
  3d grid and FFT values/proc = 3136 540
Step Density Temp Press TotEng
10000    1.0197333    1066.4353    2227.3907    1117.0299
Loop time of 15.1991 on 48 procs for 10000 steps with 1689 atoms

timestep 0.1
run 10000
PPPM initialization ...
  extracting TIP4P info from pair style
  G vector (1/distance) = 0.312392
  grid = 25 25 25
  stencil order = 5
  estimated absolute RMS force accuracy = 0.00379154
  estimated relative force accuracy = 1.14181e-05
  3d grid and FFT values/proc = 3136 500
Step Density Temp Press TotEng
20000    1.1143375    451.05469    3145.7342   -6264.3951
Loop time of 16.9291 on 48 procs for 10000 steps with 1689 atoms

timestep 0.2
run 10000
PPPM initialization ...
  extracting TIP4P info from pair style
  G vector (1/distance) = 0.314177
  grid = 25 25 25
  stencil order = 5
  estimated absolute RMS force accuracy = 0.00351972
  estimated relative force accuracy = 1.05995e-05
  3d grid and FFT values/proc = 3136 500
Step Density Temp Press TotEng
30000    1.2012207    308.12268    3905.8141   -8567.5299
Loop time of 16.2895 on 48 procs for 10000 steps with 1689 atoms

timestep 0.5
run 10000
PPPM initialization ...
  extracting TIP4P info from pair style
  G vector (1/distance) = 0.313778
  grid = 25 25 25
  stencil order = 5
  estimated absolute RMS force accuracy = 0.00357892
  estimated relative force accuracy = 1.07778e-05
  3d grid and FFT values/proc = 3136 500
Step Density Temp Press TotEng
40000    1.1811553    302.26579    3679.9231   -8747.4925
Loop time of 16.9206 on 48 procs for 10000 steps with 1689 atoms

reset_timestep 0

# continuing the initialization with the final value of timestep
unfix integrate
fix integrate all rigid/npt/small molecule temp 298.15 298.15 100.0 iso 1 1 1000.0
554 rigid bodies with 1689 atoms
  1.49018 = max distance from body owner to body atom

timestep 1

run 1000000
PPPM initialization ...
  extracting TIP4P info from pair style
  G vector (1/distance) = 0.313715
  grid = 25 25 25
  stencil order = 5
  estimated absolute RMS force accuracy = 0.00358826
  estimated relative force accuracy = 1.08059e-05
  3d grid and FFT values/proc = 3136 500
Step Density Temp Press TotEng
0    1.1780493    296.72939    5825.7306   -8829.1341
Averages over the last 6 of 11 rows, steps 500000 to 1000000:
Density Temp Press TotEng
1.18553 293.753 -104.445 -8842.91
Loop time of 1766.91 on 48 procs for 1000000 steps with 1689 atoms

reset_timestep 0

#################### 3) Obtaining average volume in NPT ######################
# Creating restart files
restart 100000 1.restart 2.restart

# Getting the average volume of the system
variable Volume equal vol
fix VoluAve all ave/time 1 2500000 2500000 v_Volume file volume.dat

variable Dens equal density
fix DensAve all ave/time 1 25000 25000 v_Dens file density.dat

compute T1 all temp
fix TempAve1 all ave/time 1 25000 25000 c_T1 file temperatureNPT.dat

compute P1 all pressure T1
fix PressAve1 all ave/time 1 25000 25000 c_P1 file pressureNPT.dat

run 2500000
PPPM initialization ...
  extracting TIP4P info from pair style
  G vector (1/distance) = 0.314126
  grid = 25 25 25
  stencil order = 5
  estimated absolute RMS force accuracy = 0.00352723
  estimated relative force accuracy = 1.06221e-05
  3d grid and FFT values/proc = 3136 500
Step Density Temp Press TotEng
0    1.1986383    307.84165   -326.74973   -8794.1127
Averages over the last 13 of 26 rows, steps 1300000 to 2500000:
Density Temp Press TotEng
1.19056 295.715 -83.3571 -8845
Loop time of 4392.93 on 48 procs for 2500000 steps with 1689 atoms

#################### 4) Initializing the NVT ensemble ####################
# scaling the size of the system to the average volume
variable sidesize equal (f_VoluAve^(1.0/3.0))    # get the volume
variable xlow equal xlo
variable ylow equal ylo
variable zlow equal zlo
variable xhig equal (xlo+25.4157306604779)
variable yhig equal (ylo+25.4157306604779)
variable zhig equal (zlo+25.4157306604779)
change_box all x final 0.501741179180183 25.9174718396581 y final 0.501741179180183 25.9174718396581 z final 0.501741179180183 25.9174718396581
  orthogonal box = (0.501741 0.501741 0.501741) to (25.9175 25.898 25.898)
  orthogonal box = (0.501741 0.501741 0.501741) to (25.9175 25.9175 25.898)
  orthogonal box = (0.501741 0.501741 0.501741) to (25.9175 25.9175 25.9175)
unfix DensAve
unfix VoluAve
unfix TempAve1
unfix PressAve1

# changing the ensemble to NVT
unfix integrate
fix integrate all rigid/nvt/small molecule temp 298.15 298.15 10.0
554 rigid bodies with 1689 atoms
  1.50848 = max distance from body owner to body atom

timestep 0.001
run 10000
PPPM initialization ...
  extracting TIP4P info from pair style
  G vector (1/distance) = 0.313938
  grid = 25 25 25
  stencil order = 5
  estimated absolute RMS force accuracy = 0.00355504
  estimated relative force accuracy = 1.07059e-05
  3d grid and FFT values/proc = 3136 500
Step Density Temp Press TotEng
2500000    1.1891655     293.3817    7428.7695   -8892.0875
Loop time of 12.8317 on 48 procs for 10000 steps with 1689 atoms

timestep 0.01
run 10000
PPPM initialization ...
  extracting TIP4P info from pair style
  G vector (1/distance) = 0.313938
  grid = 25 25 25
  stencil order = 5
  estimated absolute RMS force accuracy = 0.00355504
  estimated relative force accuracy = 1.07059e-05
  3d grid and FFT values/proc = 3136 500
Step Density Temp Press TotEng
2510000    1.1891655    301.60995    1408.8315   -8868.1615
Loop time of 13.1743 on 48 procs for 10000 steps with 1689 atoms

timestep 0.1
run 10000
PPPM initialization ...
  extracting TIP4P info from pair style
  G vector (1/distance) = 0.313938
  grid = 25 25 25
  stencil order = 5
  estimated absolute RMS force accuracy = 0.00355504
  estimated relative force accuracy = 1.07059e-05
  3d grid and FFT values/proc = 3136 500
Step Density Temp Press TotEng
2520000    1.1891655    302.83423    751.56948    -8875.809
Loop time of 13.2393 on 48 procs for 10000 steps with 1689 atoms

timestep 0.2
run 10000
PPPM initialization ...
  extracting TIP4P info from pair style
  G vector (1/distance) = 0.313938
  grid = 25 25 25
  stencil order = 5
  estimated absolute RMS force accuracy = 0.00355504
  estimated relative force accuracy = 1.07059e-05
  3d grid and FFT values/proc = 3136 500
Step Density Temp Press TotEng
2530000    1.1891655    316.01234    400.76033    -8777.104
Loop time of 13.259 on 48 procs for 10000 steps with 1689 atoms

timestep 0.5
run 10000
PPPM initialization ...
  extracting TIP4P info from pair style
  G vector (1/distance) = 0.313938
  grid = 25 25 25
  stencil order = 5
  estimated absolute RMS force accuracy = 0.00355504
  estimated relative force accuracy = 1.07059e-05
  3d grid and FFT values/proc = 3136 500
Step Density Temp Press TotEng
2540000    1.1891655    307.60143    1211.4387   -8815.7703
Loop time of 13.5615 on 48 procs for 10000 steps with 1689 atoms

unfix integrate
fix integrate all rigid/nvt/small molecule temp 298.15 298.15 100.0
554 rigid bodies with 1689 atoms
  1.50848 = max distance from body owner to body atom
# continuing the initialization with the final value of timestep
timestep 1

run 250000
PPPM initialization ...
  extracting TIP4P info from pair style
  G vector (1/distance) = 0.313938
  grid = 25 25 25
  stencil order = 5
  estimated absolute RMS force accuracy = 0.00355504
  estimated relative force accuracy = 1.07059e-05
  3d grid and FFT values/proc = 3136 500
Step Density Temp Press TotEng
2550000    1.1891655    294.87138    2299.6078   -8888.9535
Loop time of 350.02 on 48 procs for 250000 steps with 1689 atoms

reset_timestep 0

#################### 2) Production in NVT ensemble #####################
# computing average total energy, pontential energy, temperature, and pressure over time
variable TotEn equal etotal
fix TEAve all ave/time 1 100000 100000 v_TotEn file TotalE.dat

variable PotEn equal pe
fix PEAve all ave/time 1 100000 100000 v_PotEn file PotenE.dat

compute T all temp
fix TempAve all ave/time 1 100000 100000 c_T file temperature.dat

compute P all pressure T
fix PressAve all ave/time 1 100000 100000 c_P file pressure.dat

# computing self-diffusion and Onsager coefficients using the OCTP plugin
compute positions all position
fix f1 all ordern diffusivity 1000 100000 c_positions nb 10 nbe 20

# computing shear and bulk viscosities  using the OCTP plugin
fix f2 all ordern viscosity 5 100000 c_P nb 10 nbe 20

# computing thermal conductivity using the OCTP plugin
compute KE all ke/atom
compute PE all pe/atom
compute ST all stress/atom NULL virial
compute heatflux all heat/flux KE PE ST
fix f3 all ordern thermalconductivity 5 100000 c_heatflux nb 10 nbe 20

# computing the RDF for all group pairs
compute rdfs all rdf/ext Nbin 2000 Nwrite 1000
fix f4 all ave/time 1 1 1000 c_rdfs

dump trjectory all xyz 100000 movie.xyz
dump_modify trjectory element Ow H Na m B OH

run 250000
PPPM initialization ...
  extracting TIP4P info from pair style
  G vector (1/distance) = 0.313938
  grid = 25 25 25
  stencil order = 5
  estimated absolute RMS force accuracy = 0.00355504
  estimated relative force accuracy = 1.07059e-05
  3d grid and FFT values/proc = 3136 500
Step Density Temp Press TotEng
0    1.1891655    299.62096    1254.3146    -8840.102
Loop time of 506.602 on 48 procs for 250000 steps with 1689 atoms

shell bash copy_files.sh 0.25ns

run 250000
PPPM initialization ...
  extracting TIP4P info from pair style
  G vector (1/distance) = 0.313938
  grid = 25 25 25
  stencil order = 5
  estimated absolute RMS force accuracy = 0.00355504
  estimated relative force accuracy = 1.07059e-05
  3d grid and FFT values/proc = 3136 500
Step Density Temp Press TotEng
250000    1.1891655    287.30163    1503.6572    -8907.464
Loop time of 529.609 on 48 procs for 250000 steps with 1689 atoms

shell bash copy_files.sh 0.5ns

run 250000
PPPM initialization ...
  extracting TIP4P info from pair style
  G vector (1/distance) = 0.313938
  grid = 25 25 25
  stencil order = 5
  estimated absolute RMS force accuracy = 0.00355504
  estimated relative force accuracy = 1.07059e-05
  3d grid and FFT values/proc = 3136 500
Step Density Temp Press TotEng
500000    1.1891655    299.89986    3201.2855     -8855.07
Loop time of 529.558 on 48 procs for 250000 steps with 1689 atoms

shell bash copy_files.sh 0.75ns

run 250000
PPPM initialization ...
  extracting TIP4P info from pair style
  G vector (1/distance) = 0.313938
  grid = 25 25 25
  stencil order = 5
  estimated absolute RMS force accuracy = 0.00355504
  estimated relative force accuracy = 1.07059e-05
  3d grid and FFT values/proc = 3136 500
Step Density Temp Press TotEng
750000    1.1891655    288.42427   -999.32062   -8851.0457
Loop time of 533.219 on 48 procs for 250000 steps with 1689 atoms

shell bash copy_files.sh 1ns

run 250000
PPPM initialization ...
  extracting TIP4P info from pair style
  G vector (1/distance) = 0.313938
  grid = 25 25 25
  stencil order = 5
  estimated absolute RMS force accuracy = 0.00355504
  estimated relative force accuracy = 1.07059e-05
  3d grid and FFT values/proc = 3136 500
Step Density Temp Press TotEng
1000000    1.1891655    309.89653    4879.1594   -8826.4129
Loop time of 524.541 on 48 procs for 250000 steps with 1689 atoms

shell bash copy_files.sh 1.25ns

run 250000
PPPM initialization ...
  extracting TIP4P info from pair style
  G vector (1/distance) = 0.313938
  grid = 25 25 25
  stencil order = 5
  estimated absolute RMS force accuracy = 0.00355504
  estimated relative force accuracy = 1.07059e-05
  3d grid and FFT values/proc = 3136 500
Step Density Temp Press TotEng
1250000    1.1891655     303.4634    1595.3156   -8787.2061
Loop time of 538.406 on 48 procs for 250000 steps with 1689 atoms

shell bash copy_files.sh 1.5ns

run 250000
PPPM initialization ...
  extracting TIP4P info from pair style
  G vector (1/distance) = 0.313938
  grid = 25 25 25
  stencil order = 5
  estimated absolute RMS force accuracy = 0.00355504
  estimated relative force accuracy = 1.07059e-05
  3d grid and FFT values/proc = 3136 500
Step Density Temp Press TotEng
1500000    1.1891655    294.93875    1515.2542   -8909.7027
Loop time of 506.778 on 48 procs for 250000 steps with 1689 atoms

shell bash copy_files.sh 1.75ns

run 250000
PPPM initialization ...
  extracting TIP4P info from pair style
  G vector (1/distance) = 0.313938
  grid = 25 25 25
  stencil order = 5
  estimated absolute RMS force accuracy = 0.00355504
  estimated relative force accuracy = 1.07059e-05
  3d grid and FFT values/proc = 3136 500
Step Density Temp Press TotEng
1750000    1.1891655     304.0124    2393.2757   -8909.5983
Loop time of 490.93 on 48 procs for 250000 steps with 1689 atoms

shell bash copy_files.sh 2ns

run 1000000
PPPM initialization ...
  extracting TIP4P info from pair style
  G vector (1/distance) = 0.313938
  grid = 25 25 25
  stencil order = 5
  estimated absolute RMS force accuracy = 0.00355504
  estimated relative force accuracy = 1.07059e-05
  3d grid and FFT values/proc = 3136 500
Step Density Temp Press TotEng
2000000    1.1891655     298.6657    701.08279   -8815.0492
Averages over the last 6 of 11 rows, steps 2500000 to 3000000:
Density Temp Press TotEng
1.18917 296.021 -457.764 -8862.18
Loop time of 2080.99 on 48 procs for 1000000 steps with 1689 atoms

shell bash copy_files.sh 3ns

run 1000000
PPPM initialization ...
  extracting TIP4P info from pair style
  G vector (1/distance) = 0.313938
  grid = 25 25 25
  stencil order = 5
  estimated absolute RMS force accuracy = 0.00355504
  estimated relative force accuracy = 1.07059e-05
  3d grid and FFT values/proc = 3136 500
Step Density Temp Press TotEng
3000000    1.1891655    296.43056    -1010.339   -8898.5561
Averages over the last 6 of 11 rows, steps 3500000 to 4000000:
Density Temp Press TotEng
1.18917 304.837 -150.397 -8813.47
Loop time of 2121.58 on 48 procs for 1000000 steps with 1689 atoms

shell bash copy_files.sh 4ns

run 1000000
PPPM initialization ...
  extracting TIP4P info from pair style
  G vector (1/distance) = 0.313938
  grid = 25 25 25
  stencil order = 5
  estimated absolute RMS force accuracy = 0.00355504
  estimated relative force accuracy = 1.07059e-05
  3d grid and FFT values/proc = 3136 500
Step Density Temp Press TotEng
4000000    1.1891655     302.4865    1155.5802   -8774.0449
Averages over the last 6 of 11 rows, steps 4500000 to 5000000:
Density Temp Press TotEng
1.18917 298.344 -15.5187 -8841.73
Loop time of 2075.67 on 48 procs for 1000000 steps with 1689 atoms

shell bash copy_files.sh 5ns

run 1000000
PPPM initialization ...
  extracting TIP4P info from pair style
  G vector (1/distance) = 0.313938
  grid = 25 25 25
  stencil order = 5
  estimated absolute RMS force accuracy = 0.00355504
  estimated relative force accuracy = 1.07059e-05
  3d grid and FFT values/proc = 3136 500
Step Density Temp Press TotEng
5000000    1.1891655    292.37795    2605.4738   -8838.8473
Averages over the last 6 of 11 rows, steps 5500000 to 6000000:
Density Temp Press TotEng
1.18917 303.285 208.869 -8842.32
Loop time of 1969.32 on 48 procs for 1000000 steps with 1689 atoms

shell bash copy_files.sh 6ns

run 1000000
PPPM initialization ...
  extracting TIP4P info from pair style
  G vector (1/distance) = 0.313938
  grid = 25 25 25
  stencil order = 5
  estimated absolute RMS force accuracy = 0.00355504
  estimated relative force accuracy = 1.07059e-05
  3d grid and FFT values/proc = 3136 500
Step Density Temp Press TotEng
6000000    1.1891655     307.6656    1494.6766   -8809.8547
Averages over the last 6 of 11 rows, steps 6500000 to 7000000:
Density Temp Press TotEng
1.18917 297.064 -204.434 -8849.85
Loop time of 2059.97 on 48 procs for 1000000 steps with 1689 atoms

shell bash copy_files.sh 7ns

run 1000000
PPPM initialization ...
  extracting TIP4P info from pair style
  G vector (1/distance) = 0.313938
  grid = 25 25 25
  stencil order = 5
  estimated absolute RMS force accuracy = 0.00355504
  estimated relative force accuracy = 1.07059e-05
  3d grid and FFT values/proc = 3136 500
Step Density Temp Press TotEng
7000000    1.1891655    312.63697    1920.2312   -8803.8146
Averages over the last 6 of 11 rows, steps 7500000 to 8000000:
Density Temp Press TotEng
1.18917 300.068 -562.922 -8822.34
Loop time of 2060.55 on 48 procs for 1000000 steps with 1689 atoms

shell bash copy_files.sh 8ns

run 1000000
PPPM initialization ...
  extracting TIP4P info from pair style
  G vector (1/distance) = 0.313938
  grid = 25 25 25
  stencil order = 5
  estimated absolute RMS force accuracy = 0.00355504
  estimated relative force accuracy = 1.07059e-05
  3d grid and FFT values/proc = 3136 500
Step Density Temp Press TotEng
8000000    1.1891655    304.27749     282.1775   -8745.5505
Averages over the last 6 of 11 rows, steps 8500000 to 9000000:
Density Temp Press TotEng
1.18917 303.35 -136.191 -8841.27
Loop time of 2024.63 on 48 procs for 1000000 steps with 1689 atoms

shell bash copy_files.sh 9ns

run 1000000
PPPM initialization ...
  extracting TIP4P info from pair style
  G vector (1/distance) = 0.313938
  grid = 25 25 25
  stencil order = 5
  estimated absolute RMS force accuracy = 0.00355504
  estimated relative force accuracy = 1.07059e-05
  3d grid and FFT values/proc = 3136 500
Step Density Temp Press TotEng
9000000    1.1891655    303.39403   -938.53086   -8813.0422
Averages over the last 6 of 11 rows, steps 9500000 to 10000000:
Density Temp Press TotEng
1.18917 301.108 200.621 -8813.94
Loop time of 2099.43 on 48 procs for 1000000 steps with 1689 atoms

shell bash copy_files.sh 10ns

run 2500000
PPPM initialization ...
  extracting TIP4P info from pair style
  G vector (1/distance) = 0.313938
  grid = 25 25 25
  stencil order = 5
  estimated absolute RMS force accuracy = 0.00355504
  estimated relative force accuracy = 1.07059e-05
  3d grid and FFT values/proc = 3136 500
Step Density Temp Press TotEng
10000000    1.1891655    304.19752    559.20885   -8831.8497
Averages over the last 13 of 26 rows, steps 11300000 to 12500000:
Density Temp Press TotEng
1.18917 298.582 -135.058 -8854.14
Loop time of 5229.67 on 48 procs for 2500000 steps with 1689 atoms
