LAMMPS (16 Mar 2018)
####################################################
# Preprocessing Li2SO4 in water
#################### SETTING UP ####################
units real
dimension 3
newton on
boundary p p p
atom_style full

#################### VARIABLES ####################
variable Temp equal 298.15    # Temperature in K
variable Pres equal 1    # Pressure in atm.

variable RandomSeed equal 83 # The random seed for velocity
variable tstep equal 1 # timestep in fs

#################### NPT ####################
variable Ninptpre equal 10000 # Pre-initialize the NPT ensemble (very small timesteps)
variable Ninpt equal 1000000  # Initialize the NPT ensemble
variable Npnpt equal 2500000  # Production in the NPT ensemble (volume)

#################### NVT ####################
variable Ninvtpre equal 10000  # Pre-initialize the NVT ensemble (very small timesteps)
variable Ninvt equal 250000   # Initialize the NVT ensemble 0.1 ns
variable Nrun1 equal 250000  # production in the NVT ensemble (Transport properties)
variable Nrun2 equal 1000000  # production in the NVT ensemble (Transport properties)
variable Nrun3 equal 2500000  # production in the NVT ensemble (Transport properties)

variable Nf equal 100000      # Nfreq (fix ave/time and thermo)
variable Ne equal  1          # Nevery (fix ave/time)
variable Nr equal 100000/1
variable Nd equal 100000
variable NBR equal 2500000/100

variable nb equal 10          # Number of blocks (fix ordern)
variable nbe equal 20         # Number of block elements (fix ordern)
variable Nvisc equal 5        # Nevery for viscosity (fix ordern: sample data at (Nvisc*2))
variable Ncond equal 5        # Nevery for Tconductivity (fix ordern: sample data at (Ncond*2))
variable Ndiff equal 1000     # Nevery for diffusivity (fix ordern: sample data at (Ndiff))
variable Nwrit equal 100000   # Nwrite for transport properties (fix ordern: write every (Nwrit))

variable Nrdfe equal 1000     # Nevery for RDF (fix ave/time)
variable Nrdfw equal 1000     # Nwrite for RDF (compute rdf/ext: write every (Nrdfw*Nrdfe))
variable binnum equal 2000    # Number of bins for RDF

#################### ATOM DEFINITION and FORCEFIELD ####################
read_data ./data.lmp                     # read the positions
  orthogonal box = (0 0 0) to (26.3997 26.3997 26.3997)
  reading atoms ...
  1689 atoms
  scanning bonds ...
  scanning angles ...
  reading bonds ...
  1135 bonds
  reading angles ...
  662 angles
include ./forcefield.data                # read the force field
# ----------------- INTERMOLECULAR POTENTIAL -------------------
# ---------------Developed for Na(B(OH)4) in water (tip4p/2005) system-----

mass 1 15.9994 # Ow
mass 2 1.00794 # Hw
mass 3 22.9397 # Na
mass 4 0.0500  # M
mass 5 10.811  # B(B(OH)4)
mass 6 17.008  # OH(B(OH)4)

pair_style lj/cut/tip4p/long 1 2 1 1 0.1546 10.0
kspace_style pppm/tip4p 1.0e-5
pair_modify tail yes # ATC

#-----------------Combinations----------------------------

pair_coeff 1 1 0.1852 3.1589     # Ow-Ow
pair_coeff 1 2 0.0000 0.0000     # Ow-Hw
pair_coeff 1 3 0.1897 2.60838    # Ow-Na
pair_coeff 1 4 0.0000 0.0000     # Ow-M
pair_coeff 1 5 0.0000 0.0000     # Ow-B(B(OH)4)
pair_coeff 1 6 0.1361 3.0100    # Ow-OH(B(OH)4)

pair_coeff 2 2 0.0000 0.0000     # Hw-Hw
pair_coeff 2 3 0.0000 0.0000     # Hw-Na
pair_coeff 2 4 0.0000 0.0000     # Hw-M
pair_coeff 2 5 0.0000 0.0000     # Hw-B(B(OH)4)
pair_coeff 2 6 0.0000 0.0000     # Hw-OH(B(OH)4)

pair_coeff 3 3 0.3519 2.2174     # Na-Na
pair_coeff 3 4 0.0000 0.0000     # Na-M
pair_coeff 3 5 0.0000 0.0000     # Na-B(B(OH)4)
pair_coeff 3 6 0.1876 2.5837     # Na-OH(B(OH)4)

pair_coeff 4 4 0.0000 0.0000     # M-M
pair_coeff 4 5 0.0000 0.0000     # M-B
pair_coeff 4 6 0.0000 0.0000     # M-OH

pair_coeff 5 5 0.0000 0.0000     # B(B(OH)4)-B(B(OH)4)
pair_coeff 5 6 0.0000 0.0000     # B(B(OH)4)-OH(B(OH)4)

pair_coeff 6 6 0.1000 2.9500     # OH(B(OH)4)-OH(B(OH)4)

bond_style  harmonic
bond_coeff 1 1000 0.9572          # Ow-Hw
bond_coeff 2 1000 0.5000          # Na-M
bond_coeff 3 1000 1.4900          # B(B(OH)4)-OH(B(OH)4)

angle_style harmonic
angle_coeff 1 100 104.52          # H-O-H
angle_coeff 2 100 109.5           # OH(B(OH)4)-B(B(OH)4)-OH(B(OH)4)
#dihedral_style none
#improper_style none

set type 1 charge -1.1128        # O
  500 settings made for charge
set type 2 charge +0.5564        # OH
  1000 settings made for charge
set type 3 charge +0.8500        # Na
  27 settings made for charge
set type 4 charge 0.00000        # M
  27 settings made for charge
set type 5 charge +2.5500        # B(B(OH)4)
  27 settings made for charge
set type 6 charge -0.8500        # OH(B(OH)4)
  108 settings made for charge

#################### INITIALIZATION ####################
group wat type 1		# O water
500 atoms in group wat
group Na type 3			# Sodium atom
27 atoms in group Na
group B type 5			# B of B(OH)4
27 atoms in group B

# neigbor lists
neighbor 2.0 bin
neigh_modify every 1 delay 0 check yes

# velocity-Verlet integrator
run_style verlet

# initializing velocities
velocity all create 298.15 83

# rate of writing thermal properties to the log file
thermo_style custom step density temp press etotal
thermo_modify flush yes
thermo 100000

#################### 2) Initialize the NPT ensemble ####################
######### Go to the correct temperature now ant initiate that ##########
fix integrate all rigid/npt/small molecule temp 298.15 298.15 10.0 iso 1 1 100.0
554 rigid bodies with 1689 atoms
  1.49001 = max distance from body owner to body atom

# Initializing the whole system with very small timesteps in the NPT ensemble
timestep 0.001
run 10000
PPPM initialization ...
  extracting TIP4P info from pair style
  G vector (1/distance) = 0.316667
  grid = 27 27 27
  stencil order = 5
  estimated absolute RMS force accuracy = 0.00282331
  estimated relative force accuracy = 8.50232e-06
  3d grid and FFT values/proc = 3136 540
  update every 1 steps, delay 0 steps, check yes
Step Density Temp Press TotEng
0    1.0610873    296.75985    8051558.9    2122.5792
Loop time of 13.2978 on 48 procs for 10000 steps with 1689 atoms

timestep 0.01
run 10000
PPPM initialization ...
  extracting TIP4P info from pair style
  G vector (1/distance) = 0.315758
  grid = 27 27 27
  stencil order = 5
  estimated absolute RMS force accuracy = 0.00293381
  estimated relative force accuracy = 8.83508e-06
  3d grid and FFT values/proc = 3136 540
Step Density Temp Press TotEng
10000    1.0204657    1052.6536    1943.1998    1148.6253
Loop time of 13.022 on 48 procs for 10000 steps with 1689 atoms

timestep 0.1
run 10000
PPPM initialization ...
  extracting TIP4P info from pair style
  G vector (1/distance) = 0.313333
  grid = 25 25 25
  stencil order = 5
  estimated absolute RMS force accuracy = 0.0036459
  estimated relative force accuracy = 1.09795e-05
  3d grid and FFT values/proc = 3136 500
Step Density Temp Press TotEng
20000    1.1592503    446.48075     3986.832   -6268.6334
Loop time of 13.8839 on 48 procs for 10000 steps with 1689 atoms

timestep 0.2
run 10000
PPPM initialization ...
  extracting TIP4P info from pair style
  G vector (1/distance) = 0.313978
  grid = 25 25 25
  stencil order = 5
  estimated absolute RMS force accuracy = 0.00354903
  estimated relative force accuracy = 1.06878e-05
  3d grid and FFT values/proc = 3136 500
Step Density Temp Press TotEng
30000    1.1912015    297.74767    1205.3756   -8669.7329
Loop time of 13.7591 on 48 procs for 10000 steps with 1689 atoms

timestep 0.5
run 10000
PPPM initialization ...
  extracting TIP4P info from pair style
  G vector (1/distance) = 0.314399
  grid = 25 25 25
  stencil order = 5
  estimated absolute RMS force accuracy = 0.00348711
  estimated relative force accuracy = 1.05013e-05
  3d grid and FFT values/proc = 3136 500
Step Density Temp Press TotEng
40000    1.2125732    305.28865    4921.9787   -8741.9049
Loop time of 14.1137 on 48 procs for 10000 steps with 1689 atoms

reset_timestep 0

# continuing the initialization with the final value of timestep
unfix integrate
fix integrate all rigid/npt/small molecule temp 298.15 298.15 100.0 iso 1 1 1000.0
554 rigid bodies with 1689 atoms
  1.4903 = max distance from body owner to body atom

timestep 1

run 1000000
PPPM initialization ...
  extracting TIP4P info from pair style
  G vector (1/distance) = 0.313842
  grid = 25 25 25
  stencil order = 5
  estimated absolute RMS force accuracy = 0.00356927
  estimated relative force accuracy = 1.07488e-05
  3d grid and FFT values/proc = 3136 500
Step Density Temp Press TotEng
0    1.1843785    304.77664    6420.4454   -8746.7608
Averages over the last 6 of 11 rows, steps 500000 to 1000000:
Density Temp Press TotEng
1.18906 301.971 -136.414 -8814.72
Loop time of 1485.25 on 48 procs for 1000000 steps with 1689 atoms

reset_timestep 0

#################### 3) Obtaining average volume in NPT ######################
# Creating restart files
restart 100000 1.restart 2.restart

# Getting the average volume of the system
variable Volume equal vol
fix VoluAve all ave/time 1 2500000 2500000 v_Volume file volume.dat

variable Dens equal density
fix DensAve all ave/time 1 25000 25000 v_Dens file density.dat

compute T1 all temp
fix TempAve1 all ave/time 1 25000 25000 c_T1 file temperatureNPT.dat

compute P1 all pressure T1
fix PressAve1 all ave/time 1 25000 25000 c_P1 file pressureNPT.dat

run 2500000
PPPM initialization ...
  extracting TIP4P info from pair style
  G vector (1/distance) = 0.313928
  grid = 25 25 25
  stencil order = 5
  estimated absolute RMS force accuracy = 0.00355655
  estimated relative force accuracy = 1.07104e-05
  3d grid and FFT values/proc = 3136 500
Step Density Temp Press TotEng
0    1.1886579    298.04126    1929.7745   -8825.7592
Averages over the last 13 of 26 rows, steps 1300000 to 2500000:
Density Temp Press TotEng
1.18786 297.881 -85.156 -8838.53
Loop time of 3751.37 on 48 procs for 2500000 steps with 1689 atoms

#################### 4) Initializing the NVT ensemble ####################
# scaling the size of the system to the average volume
variable sidesize equal (f_VoluAve^(1.0/3.0))    # get the volume
variable xlow equal xlo
variable ylow equal ylo
variable zlow equal zlo
variable xhig equal (xlo+25.414708214119)
variable yhig equal (ylo+25.414708214119)
variable zhig equal (zlo+25.414708214119)
change_box all x final 0.448810416959882 25.8635186310789 y final 0.448810416959882 25.8635186310789 z final 0.448810416959882 25.8635186310789
  orthogonal box = (0.44881 0.44881 0.44881) to (25.8635 25.9509 25.9509)
  orthogonal box = (0.44881 0.44881 0.44881) to (25.8635 25.8635 25.9509)
  orthogonal box = (0.44881 0.44881 0.44881) to (25.8635 25.8635 25.8635)
unfix DensAve
unfix VoluAve
unfix TempAve1
unfix PressAve1

# changing the ensemble to NVT
unfix integrate
fix integrate all rigid/nvt/small molecule temp 298.15 298.15 10.0
554 rigid bodies with 1689 atoms
  1.49028 = max distance from body owner to body atom

timestep 0.001
run 10000
PPPM initialization ...
  extracting TIP4P info from pair style
  G vector (1/distance) = 0.313941
  grid = 25 25 25
  stencil order = 5
  estimated absolute RMS force accuracy = 0.00355462
  estimated relative force accuracy = 1.07046e-05
  3d grid and FFT values/proc = 3136 500
Step Density Temp Press TotEng
2500000    1.1893091    285.65052   -29664.477   -8516.6548
Loop time of 11.0548 on 48 procs for 10000 steps with 1689 atoms

timestep 0.01
run 10000
PPPM initialization ...
  extracting TIP4P info from pair style
  G vector (1/distance) = 0.313941
  grid = 25 25 25
  stencil order = 5
  estimated absolute RMS force accuracy = 0.00355462
  estimated relative force accuracy = 1.07046e-05
  3d grid and FFT values/proc = 3136 500
Step Density Temp Press TotEng
2510000    1.1893091    301.77708     11872.61   -8494.5054
Loop time of 11.0249 on 48 procs for 10000 steps with 1689 atoms

timestep 0.1
run 10000
PPPM initialization ...
  extracting TIP4P info from pair style
  G vector (1/distance) = 0.313941
  grid = 25 25 25
  stencil order = 5
  estimated absolute RMS force accuracy = 0.00355462
  estimated relative force accuracy = 1.07046e-05
  3d grid and FFT values/proc = 3136 500
Step Density Temp Press TotEng
2520000    1.1893091    315.30685    1290.9129    -8437.895
Loop time of 11.0648 on 48 procs for 10000 steps with 1689 atoms

timestep 0.2
run 10000
PPPM initialization ...
  extracting TIP4P info from pair style
  G vector (1/distance) = 0.313941
  grid = 25 25 25
  stencil order = 5
  estimated absolute RMS force accuracy = 0.00355462
  estimated relative force accuracy = 1.07046e-05
  3d grid and FFT values/proc = 3136 500
Step Density Temp Press TotEng
2530000    1.1893091    300.35125    2920.4412   -8459.9673
Loop time of 11.3703 on 48 procs for 10000 steps with 1689 atoms

timestep 0.5
run 10000
PPPM initialization ...
  extracting TIP4P info from pair style
  G vector (1/distance) = 0.313941
  grid = 25 25 25
  stencil order = 5
  estimated absolute RMS force accuracy = 0.00355462
  estimated relative force accuracy = 1.07046e-05
  3d grid and FFT values/proc = 3136 500
Step Density Temp Press TotEng
2540000    1.1893091    299.56755   -1283.2431   -8391.0226
Loop time of 11.4863 on 48 procs for 10000 steps with 1689 atoms

unfix integrate
fix integrate all rigid/nvt/small molecule temp 298.15 298.15 100.0
554 rigid bodies with 1689 atoms
  1.49028 = max distance from body owner to body atom
# continuing the initialization with the final value of timestep
timestep 1

run 250000
PPPM initialization ...
  extracting TIP4P info from pair style
  G vector (1/distance) = 0.313941
  grid = 25 25 25
  stencil order = 5
  estimated absolute RMS force accuracy = 0.00355462
  estimated relative force accuracy = 1.07046e-05
  3d grid and FFT values/proc = 3136 500
Step Density Temp Press TotEng
2550000    1.1893091    292.98134    1898.1623   -8467.0894
Loop time of 298.653 on 48 procs for 250000 steps with 1689 atoms

reset_timestep 0

#################### 2) Production in NVT ensemble #####################
# computing average total energy, pontential energy, temperature, and pressure over time
variable TotEn equal etotal
fix TEAve all ave/time 1 100000 100000 v_TotEn file TotalE.dat

variable PotEn equal pe
fix PEAve all ave/time 1 100000 100000 v_PotEn file PotenE.dat

compute T all temp
fix TempAve all ave/time 1 100000 100000 c_T file temperature.dat

compute P all pressure T
fix PressAve all ave/time 1 100000 100000 c_P file pressure.dat

# computing self-diffusion and Onsager coefficients using the OCTP plugin
compute positions all position
fix f1 all ordern diffusivity 1000 100000 c_positions nb 10 nbe 20

# computing shear and bulk viscosities  using the OCTP plugin
fix f2 all ordern viscosity 5 100000 c_P nb 10 nbe 20

# computing thermal conductivity using the OCTP plugin
compute KE all ke/atom
compute PE all pe/atom
compute ST all stress/atom NULL virial
compute heatflux all heat/flux KE PE ST
fix f3 all ordern thermalconductivity 5 100000 c_heatflux nb 10 nbe 20

# computing the RDF for all group pairs
compute rdfs all rdf/ext Nbin 2000 Nwrite 1000
fix f4 all ave/time 1 1 1000 c_rdfs

dump trjectory all xyz 100000 movie.xyz
dump_modify trjectory element Ow H Na m B OH

run 250000
PPPM initialization ...
  extracting TIP4P info from pair style
  G vector (1/distance) = 0.313941
  grid = 25 25 25
  stencil order = 5
  estimated absolute RMS force accuracy = 0.00355462
  estimated relative force accuracy = 1.07046e-05
  3d grid and FFT values/proc = 3136 500
Step Density Temp Press TotEng
0    1.1893091    295.37769    3489.1155   -8501.6223
Loop time of 441.621 on 48 procs for 250000 steps with 1689 atoms

shell bash copy_files.sh 0.25ns

run 250000
PPPM initialization ...
  extracting TIP4P info from pair style
  G vector (1/distance) = 0.313941
  grid = 25 25 25
  stencil order = 5
  estimated absolute RMS force accuracy = 0.00355462
  estimated relative force accuracy = 1.07046e-05
  3d grid and FFT values/proc = 3136 500
Step Density Temp Press TotEng
250000    1.1893091    299.81536    1265.9035   -8524.0279
Loop time of 442.178 on 48 procs for 250000 steps with 1689 atoms

shell bash copy_files.sh 0.5ns

run 250000
PPPM initialization ...
  extracting TIP4P info from pair style
  G vector (1/distance) = 0.313941
  grid = 25 25 25
  stencil order = 5
  estimated absolute RMS force accuracy = 0.00355462
  estimated relative force accuracy = 1.07046e-05
  3d grid and FFT values/proc = 3136 500
Step Density Temp Press TotEng
500000    1.1893091    282.87859     3625.034   -8575.6121
Loop time of 444.921 on 48 procs for 250000 steps with 1689 atoms

shell bash copy_files.sh 0.75ns

run 250000
PPPM initialization ...
  extracting TIP4P info from pair style
  G vector (1/distance) = 0.313941
  grid = 25 25 25
  stencil order = 5
  estimated absolute RMS force accuracy = 0.00355462
  estimated relative force accuracy = 1.07046e-05
  3d grid and FFT values/proc = 3136 500
Step Density Temp Press TotEng
750000    1.1893091    308.27808   -1099.6103   -8476.2932
Loop time of 444.459 on 48 procs for 250000 steps with 1689 atoms

shell bash copy_files.sh 1ns

run 250000
PPPM initialization ...
  extracting TIP4P info from pair style
  G vector (1/distance) = 0.313941
  grid = 25 25 25
  stencil order = 5
  estimated absolute RMS force accuracy = 0.00355462
  estimated relative force accuracy = 1.07046e-05
  3d grid and FFT values/proc = 3136 500
Step Density Temp Press TotEng
1000000    1.1893091    315.91948     4200.428   -8480.1222
Loop time of 443.543 on 48 procs for 250000 steps with 1689 atoms

shell bash copy_files.sh 1.25ns

run 250000
PPPM initialization ...
  extracting TIP4P info from pair style
  G vector (1/distance) = 0.313941
  grid = 25 25 25
  stencil order = 5
  estimated absolute RMS force accuracy = 0.00355462
  estimated relative force accuracy = 1.07046e-05
  3d grid and FFT values/proc = 3136 500
Step Density Temp Press TotEng
1250000    1.1893091    295.48525    5737.1721   -8498.7957
Loop time of 445.122 on 48 procs for 250000 steps with 1689 atoms

shell bash copy_files.sh 1.5ns

run 250000
PPPM initialization ...
  extracting TIP4P info from pair style
  G vector (1/distance) = 0.313941
  grid = 25 25 25
  stencil order = 5
  estimated absolute RMS force accuracy = 0.00355462
  estimated relative force accuracy = 1.07046e-05
  3d grid and FFT values/proc = 3136 500
Step Density Temp Press TotEng
1500000    1.1893091    302.80707    2746.3741   -8527.4284
Loop time of 443.811 on 48 procs for 250000 steps with 1689 atoms
