LAMMPS (16 Mar 2018)
####################################################
# Preprocessing Li2SO4 in water
#################### SETTING UP ####################
units real
dimension 3
newton on
boundary p p p
atom_style full

#################### VARIABLES ####################
variable Temp equal 298.15    # Temperature in K
variable Pres equal 1    # Pressure in atm.

variable RandomSeed equal 95 # The random seed for velocity
variable tstep equal 1 # timestep in fs

#################### NPT ####################
variable Ninptpre equal 10000 # Pre-initialize the NPT ensemble (very small timesteps)
variable Ninpt equal 1000000  # Initialize the NPT ensemble
variable Npnpt equal 2500000  # Production in the NPT ensemble (volume)

#################### NVT ####################
variable Ninvtpre equal 10000  # Pre-initialize the NVT ensemble (very small timesteps)
variable Ninvt equal 250000   # Initialize the NVT ensemble 0.1 ns
variable Nrun1 equal 250000  # production in the NVT ensemble (Transport properties)
variable Nrun2 equal 1000000  # production in the NVT ensemble (Transport properties)
variable Nrun3 equal 2500000  # production in the NVT ensemble (Transport properties)

variable Nf equal 100000      # Nfreq (fix ave/time and thermo)
variable Ne equal  1          # Nevery (fix ave/time)
variable Nr equal 100000/1
variable Nd equal 100000
variable NBR equal 2500000/100

variable nb equal 10          # Number of blocks (fix ordern)
variable nbe equal 20         # Number of block elements (fix ordern)
variable Nvisc equal 5        # Nevery for viscosity (fix ordern: sample data at (Nvisc*2))
variable Ncond equal 5        # Nevery for Tconductivity (fix ordern: sample data at (Ncond*2))
variable Ndiff equal 1000     # Nevery for diffusivity (fix ordern: sample data at (Ndiff))
variable Nwrit equal 100000   # Nwrite for transport properties (fix ordern: write every (Nwrit))

variable Nrdfe equal 1000     # Nevery for RDF (fix ave/time)
variable Nrdfw equal 1000     # Nwrite for RDF (compute rdf/ext: write every (Nrdfw*Nrdfe))
variable binnum equal 2000    # Number of bins for RDF

#################### ATOM DEFINITION and FORCEFIELD ####################
read_data ./data.lmp                     # read the positions
  orthogonal box = (0 0 0) to (26.3997 26.3997 26.3997)
  reading atoms ...
  1689 atoms
  scanning bonds ...
  scanning angles ...
  reading bonds ...
  1135 bonds
  reading angles ...
  662 angles
include ./forcefield.data                # read the force field
# ----------------- INTERMOLECULAR POTENTIAL -------------------
# ---------------Developed for Na(B(OH)4) in water (tip4p/2005) system-----

mass 1 15.9994 # Ow
mass 2 1.00794 # Hw
mass 3 22.9397 # Na
mass 4 0.0500  # M
mass 5 10.811  # B(B(OH)4)
mass 6 17.008  # OH(B(OH)4)

pair_style lj/cut/tip4p/long 1 2 1 1 0.1546 10.0
kspace_style pppm/tip4p 1.0e-5
pair_modify tail yes # ATC

#-----------------Combinations----------------------------

pair_coeff 1 1 0.1852 3.1589     # Ow-Ow
pair_coeff 1 2 0.0000 0.0000     # Ow-Hw
pair_coeff 1 3 0.1897 2.60838    # Ow-Na
pair_coeff 1 4 0.0000 0.0000     # Ow-M
pair_coeff 1 5 0.0000 0.0000     # Ow-B(B(OH)4)
pair_coeff 1 6 0.1361 3.0100    # Ow-OH(B(OH)4)

pair_coeff 2 2 0.0000 0.0000     # Hw-Hw
pair_coeff 2 3 0.0000 0.0000     # Hw-Na
pair_coeff 2 4 0.0000 0.0000     # Hw-M
pair_coeff 2 5 0.0000 0.0000     # Hw-B(B(OH)4)
pair_coeff 2 6 0.0000 0.0000     # Hw-OH(B(OH)4)

pair_coeff 3 3 0.3519 2.2174     # Na-Na
pair_coeff 3 4 0.0000 0.0000     # Na-M
pair_coeff 3 5 0.0000 0.0000     # Na-B(B(OH)4)
pair_coeff 3 6 0.1876 2.5837     # Na-OH(B(OH)4)

pair_coeff 4 4 0.0000 0.0000     # M-M
pair_coeff 4 5 0.0000 0.0000     # M-B
pair_coeff 4 6 0.0000 0.0000     # M-OH

pair_coeff 5 5 0.0000 0.0000     # B(B(OH)4)-B(B(OH)4)
pair_coeff 5 6 0.0000 0.0000     # B(B(OH)4)-OH(B(OH)4)

pair_coeff 6 6 0.1000 2.9500     # OH(B(OH)4)-OH(B(OH)4)

bond_style  harmonic
bond_coeff 1 1000 0.9572          # Ow-Hw
bond_coeff 2 1000 0.5000          # Na-M
bond_coeff 3 1000 1.4900          # B(B(OH)4)-OH(B(OH)4)

angle_style harmonic
angle_coeff 1 100 104.52          # H-O-H
angle_coeff 2 100 109.5           # OH(B(OH)4)-B(B(OH)4)-OH(B(OH)4)
#dihedral_style none
#improper_style none

set type 1 charge -1.1128        # O
  500 settings made for charge
set type 2 charge +0.5564        # OH
  1000 settings made for charge
set type 3 charge +0.8500        # Na
  27 settings made for charge
set type 4 charge 0.00000        # M
  27 settings made for charge
set type 5 charge +2.5500        # B(B(OH)4)
  27 settings made for charge
set type 6 charge -0.8500        # OH(B(OH)4)
  108 settings made for charge

#################### INITIALIZATION ####################
group wat type 1		# O water
500 atoms in group wat
group Na type 3			# Sodium atom
27 atoms in group Na
group B type 5			# B of B(OH)4
27 atoms in group B

# neigbor lists
neighbor 2.0 bin
neigh_modify every 1 delay 0 check yes

# velocity-Verlet integrator
run_style verlet

# initializing velocities
velocity all create 298.15 95

# rate of writing thermal properties to the log file
thermo_style custom step density temp press etotal
thermo_modify flush yes
thermo 100000

#################### 2) Initialize the NPT ensemble ####################
######### Go to the correct temperature now ant initiate that ##########
fix integrate all rigid/npt/small molecule temp 298.15 298.15 10.0 iso 1 1 100.0
554 rigid bodies with 1689 atoms
  1.49001 = max distance from body owner to body atom

# Initializing the whole system with very small timesteps in the NPT ensemble
timestep 0.001
run 10000
PPPM initialization ...
  extracting TIP4P info from pair style
  G vector (1/distance) = 0.316667
  grid = 27 27 27
  stencil order = 5
  estimated absolute RMS force accuracy = 0.00282331
  estimated relative force accuracy = 8.50232e-06
  3d grid and FFT values/proc = 3136 540
  update every 1 steps, delay 0 steps, check yes
Step Density Temp Press TotEng
0    1.0610873    304.72132   -8972270.1    2148.6365
Loop time of 17.9396 on 48 procs for 10000 steps with 1689 atoms

timestep 0.01
run 10000
PPPM initialization ...
  extracting TIP4P info from pair style
  G vector (1/distance) = 0.315838
  grid = 27 27 27
  stencil order = 5
  estimated absolute RMS force accuracy = 0.00292391
  estimated relative force accuracy = 8.80526e-06
  3d grid and FFT values/proc = 3136 540
Step Density Temp Press TotEng
10000    1.0239761    1080.5016    1896.4576    1147.0432
Loop time of 17.2631 on 48 procs for 10000 steps with 1689 atoms

timestep 0.1
run 10000
PPPM initialization ...
  extracting TIP4P info from pair style
  G vector (1/distance) = 0.313078
  grid = 25 25 25
  stencil order = 5
  estimated absolute RMS force accuracy = 0.0036848
  estimated relative force accuracy = 1.10967e-05
  3d grid and FFT values/proc = 3136 500
Step Density Temp Press TotEng
20000    1.1469003    446.80514    4583.8907   -6276.5352
Loop time of 19.0437 on 48 procs for 10000 steps with 1689 atoms

timestep 0.2
run 10000
PPPM initialization ...
  extracting TIP4P info from pair style
  G vector (1/distance) = 0.31418
  grid = 25 25 25
  stencil order = 5
  estimated absolute RMS force accuracy = 0.00351927
  estimated relative force accuracy = 1.05982e-05
  3d grid and FFT values/proc = 3136 500
Step Density Temp Press TotEng
30000     1.201376    288.19928    2277.4939   -8689.3785
Loop time of 18.8147 on 48 procs for 10000 steps with 1689 atoms

timestep 0.5
run 10000
PPPM initialization ...
  extracting TIP4P info from pair style
  G vector (1/distance) = 0.31364
  grid = 25 25 25
  stencil order = 5
  estimated absolute RMS force accuracy = 0.00359945
  estimated relative force accuracy = 1.08396e-05
  3d grid and FFT values/proc = 3136 500
Step Density Temp Press TotEng
40000    1.1743528    290.17643    2358.3837   -8780.1334
Loop time of 19.7991 on 48 procs for 10000 steps with 1689 atoms

reset_timestep 0

# continuing the initialization with the final value of timestep
unfix integrate
fix integrate all rigid/npt/small molecule temp 298.15 298.15 100.0 iso 1 1 1000.0
554 rigid bodies with 1689 atoms
  1.49011 = max distance from body owner to body atom

timestep 1

run 1000000
PPPM initialization ...
  extracting TIP4P info from pair style
  G vector (1/distance) = 0.313452
  grid = 25 25 25
  stencil order = 5
  estimated absolute RMS force accuracy = 0.00362786
  estimated relative force accuracy = 1.09252e-05
  3d grid and FFT values/proc = 3136 500
Step Density Temp Press TotEng
0    1.1650675    301.65329    256.34078   -8735.7104
Averages over the last 6 of 11 rows, steps 500000 to 1000000:
Density Temp Press TotEng
1.19051 293.241 -127.403 -8844.55
Loop time of 2004.07 on 48 procs for 1000000 steps with 1689 atoms

reset_timestep 0

#################### 3) Obtaining average volume in NPT ######################
# Creating restart files
restart 100000 1.restart 2.restart

# Getting the average volume of the system
variable Volume equal vol
fix VoluAve all ave/time 1 2500000 2500000 v_Volume file volume.dat

variable Dens equal density
fix DensAve all ave/time 1 25000 25000 v_Dens file density.dat

compute T1 all temp
fix TempAve1 all ave/time 1 25000 25000 c_T1 file temperatureNPT.dat

compute P1 all pressure T1
fix PressAve1 all ave/time 1 25000 25000 c_P1 file pressureNPT.dat

run 2500000
PPPM initialization ...
  extracting TIP4P info from pair style
  G vector (1/distance) = 0.313587
  grid = 25 25 25
  stencil order = 5
  estimated absolute RMS force accuracy = 0.00360748
  estimated relative force accuracy = 1.08638e-05
  3d grid and FFT values/proc = 3136 500
Step Density Temp Press TotEng
0    1.1717121     296.9874    2107.5197   -8839.9205
Averages over the last 13 of 26 rows, steps 1300000 to 2500000:
Density Temp Press TotEng
1.19669 298.234 120.353 -8853.35
Loop time of 5051.8 on 48 procs for 2500000 steps with 1689 atoms

#################### 4) Initializing the NVT ensemble ####################
# scaling the size of the system to the average volume
variable sidesize equal (f_VoluAve^(1.0/3.0))    # get the volume
variable xlow equal xlo
variable ylow equal ylo
variable zlow equal zlo
variable xhig equal (xlo+25.4113430866665)
variable yhig equal (ylo+25.4113430866665)
variable zhig equal (zlo+25.4113430866665)
change_box all x final 0.54837606875015 25.9597191554166 y final 0.54837606875015 25.9597191554166 z final 0.54837606875015 25.9597191554166
  orthogonal box = (0.548376 0.548376 0.548376) to (25.9597 25.8514 25.8514)
  orthogonal box = (0.548376 0.548376 0.548376) to (25.9597 25.9597 25.8514)
  orthogonal box = (0.548376 0.548376 0.548376) to (25.9597 25.9597 25.9597)
unfix DensAve
unfix VoluAve
unfix TempAve1
unfix PressAve1

# changing the ensemble to NVT
unfix integrate
fix integrate all rigid/nvt/small molecule temp 298.15 298.15 10.0
554 rigid bodies with 1689 atoms
  1.59025 = max distance from body owner to body atom

timestep 0.001
run 10000
PPPM initialization ...
  extracting TIP4P info from pair style
  G vector (1/distance) = 0.31395
  grid = 25 25 25
  stencil order = 5
  estimated absolute RMS force accuracy = 0.00355322
  estimated relative force accuracy = 1.07004e-05
  3d grid and FFT values/proc = 3136 500
Step Density Temp Press TotEng
2500000    1.1897816    307.49113   -32714.598   -8583.6191
Loop time of 16.9193 on 48 procs for 10000 steps with 1689 atoms

timestep 0.01
run 10000
PPPM initialization ...
  extracting TIP4P info from pair style
  G vector (1/distance) = 0.31395
  grid = 25 25 25
  stencil order = 5
  estimated absolute RMS force accuracy = 0.00355322
  estimated relative force accuracy = 1.07004e-05
  3d grid and FFT values/proc = 3136 500
Step Density Temp Press TotEng
2510000    1.1897816    298.12113   -12556.457   -8607.9675
Loop time of 16.3008 on 48 procs for 10000 steps with 1689 atoms

timestep 0.1
run 10000
PPPM initialization ...
  extracting TIP4P info from pair style
  G vector (1/distance) = 0.31395
  grid = 25 25 25
  stencil order = 5
  estimated absolute RMS force accuracy = 0.00355322
  estimated relative force accuracy = 1.07004e-05
  3d grid and FFT values/proc = 3136 500
Step Density Temp Press TotEng
2520000    1.1897816    299.34444    2615.0092   -8581.9839
Loop time of 16.3091 on 48 procs for 10000 steps with 1689 atoms

timestep 0.2
run 10000
PPPM initialization ...
  extracting TIP4P info from pair style
  G vector (1/distance) = 0.31395
  grid = 25 25 25
  stencil order = 5
  estimated absolute RMS force accuracy = 0.00355322
  estimated relative force accuracy = 1.07004e-05
  3d grid and FFT values/proc = 3136 500
Step Density Temp Press TotEng
2530000    1.1897816    280.49201    2689.4882    -8746.063
Loop time of 16.4402 on 48 procs for 10000 steps with 1689 atoms

timestep 0.5
run 10000
PPPM initialization ...
  extracting TIP4P info from pair style
  G vector (1/distance) = 0.31395
  grid = 25 25 25
  stencil order = 5
  estimated absolute RMS force accuracy = 0.00355322
  estimated relative force accuracy = 1.07004e-05
  3d grid and FFT values/proc = 3136 500
Step Density Temp Press TotEng
2540000    1.1897816    280.25028     1573.846   -8733.3558
Loop time of 16.6692 on 48 procs for 10000 steps with 1689 atoms

unfix integrate
fix integrate all rigid/nvt/small molecule temp 298.15 298.15 100.0
554 rigid bodies with 1689 atoms
  1.59025 = max distance from body owner to body atom
# continuing the initialization with the final value of timestep
timestep 1

run 250000
PPPM initialization ...
  extracting TIP4P info from pair style
  G vector (1/distance) = 0.31395
  grid = 25 25 25
  stencil order = 5
  estimated absolute RMS force accuracy = 0.00355322
  estimated relative force accuracy = 1.07004e-05
  3d grid and FFT values/proc = 3136 500
Step Density Temp Press TotEng
2550000    1.1897816    306.53602    1591.4105   -8625.3422
Loop time of 434.604 on 48 procs for 250000 steps with 1689 atoms

reset_timestep 0

#################### 2) Production in NVT ensemble #####################
# computing average total energy, pontential energy, temperature, and pressure over time
variable TotEn equal etotal
fix TEAve all ave/time 1 100000 100000 v_TotEn file TotalE.dat

variable PotEn equal pe
fix PEAve all ave/time 1 100000 100000 v_PotEn file PotenE.dat

compute T all temp
fix TempAve all ave/time 1 100000 100000 c_T file temperature.dat

compute P all pressure T
fix PressAve all ave/time 1 100000 100000 c_P file pressure.dat

# computing self-diffusion and Onsager coefficients using the OCTP plugin
compute positions all position
fix f1 all ordern diffusivity 1000 100000 c_positions nb 10 nbe 20

# computing shear and bulk viscosities  using the OCTP plugin
fix f2 all ordern viscosity 5 100000 c_P nb 10 nbe 20

# computing thermal conductivity using the OCTP plugin
compute KE all ke/atom
compute PE all pe/atom
compute ST all stress/atom NULL virial
compute heatflux all heat/flux KE PE ST
fix f3 all ordern thermalconductivity 5 100000 c_heatflux nb 10 nbe 20

# computing the RDF for all group pairs
compute rdfs all rdf/ext Nbin 2000 Nwrite 1000
fix f4 all ave/time 1 1 1000 c_rdfs

dump trjectory all xyz 100000 movie.xyz
dump_modify trjectory element Ow H Na m B OH

run 250000
PPPM initialization ...
  extracting TIP4P info from pair style
  G vector (1/distance) = 0.31395
  grid = 25 25 25
  stencil order = 5
  estimated absolute RMS force accuracy = 0.00355322
  estimated relative force accuracy = 1.07004e-05
  3d grid and FFT values/proc = 3136 500
Step Density Temp Press TotEng
0    1.1897816    312.36662    2619.8966    -8587.741
Loop time of 581.037 on 48 procs for 250000 steps with 1689 atoms

shell bash copy_files.sh 0.25ns

run 250000
PPPM initialization ...
  extracting TIP4P info from pair style
  G vector (1/distance) = 0.31395
  grid = 25 25 25
  stencil order = 5
  estimated absolute RMS force accuracy = 0.00355322
  estimated relative force accuracy = 1.07004e-05
  3d grid and FFT values/proc = 3136 500
Step Density Temp Press TotEng
250000    1.1897816    296.37896    2788.5375   -8654.1139
Loop time of 578.049 on 48 procs for 250000 steps with 1689 atoms

shell bash copy_files.sh 0.5ns

run 250000
PPPM initialization ...
  extracting TIP4P info from pair style
  G vector (1/distance) = 0.31395
  grid = 25 25 25
  stencil order = 5
  estimated absolute RMS force accuracy = 0.00355322
  estimated relative force accuracy = 1.07004e-05
  3d grid and FFT values/proc = 3136 500
Step Density Temp Press TotEng
500000    1.1897816    311.22505    2963.5075   -8520.6463
Loop time of 579.137 on 48 procs for 250000 steps with 1689 atoms

shell bash copy_files.sh 0.75ns

run 250000
PPPM initialization ...
  extracting TIP4P info from pair style
  G vector (1/distance) = 0.31395
  grid = 25 25 25
  stencil order = 5
  estimated absolute RMS force accuracy = 0.00355322
  estimated relative force accuracy = 1.07004e-05
  3d grid and FFT values/proc = 3136 500
Step Density Temp Press TotEng
750000    1.1897816    286.28431   -329.30295   -8621.0562
Loop time of 582.029 on 48 procs for 250000 steps with 1689 atoms

shell bash copy_files.sh 1ns

run 250000
PPPM initialization ...
  extracting TIP4P info from pair style
  G vector (1/distance) = 0.31395
  grid = 25 25 25
  stencil order = 5
  estimated absolute RMS force accuracy = 0.00355322
  estimated relative force accuracy = 1.07004e-05
  3d grid and FFT values/proc = 3136 500
Step Density Temp Press TotEng
1000000    1.1897816    300.16377    916.61085    -8611.138
Loop time of 583.031 on 48 procs for 250000 steps with 1689 atoms

shell bash copy_files.sh 1.25ns

run 250000
PPPM initialization ...
  extracting TIP4P info from pair style
  G vector (1/distance) = 0.31395
  grid = 25 25 25
  stencil order = 5
  estimated absolute RMS force accuracy = 0.00355322
  estimated relative force accuracy = 1.07004e-05
  3d grid and FFT values/proc = 3136 500
Step Density Temp Press TotEng
1250000    1.1897816    296.29698    1795.0461   -8581.3208
Loop time of 580.366 on 48 procs for 250000 steps with 1689 atoms

shell bash copy_files.sh 1.5ns

run 250000
PPPM initialization ...
  extracting TIP4P info from pair style
  G vector (1/distance) = 0.31395
  grid = 25 25 25
  stencil order = 5
  estimated absolute RMS force accuracy = 0.00355322
  estimated relative force accuracy = 1.07004e-05
  3d grid and FFT values/proc = 3136 500
Step Density Temp Press TotEng
1500000    1.1897816    300.16351    2956.9191   -8648.5397
Loop time of 579.067 on 48 procs for 250000 steps with 1689 atoms

shell bash copy_files.sh 1.75ns

run 250000
PPPM initialization ...
  extracting TIP4P info from pair style
  G vector (1/distance) = 0.31395
  grid = 25 25 25
  stencil order = 5
  estimated absolute RMS force accuracy = 0.00355322
  estimated relative force accuracy = 1.07004e-05
  3d grid and FFT values/proc = 3136 500
Step Density Temp Press TotEng
1750000    1.1897816     305.0794    3988.4522   -8613.4343
Loop time of 582.459 on 48 procs for 250000 steps with 1689 atoms
